pyensys/tests/matpower/A_KPC_10_v2.m
% Distribution_Network_KPC_10
function mpc = A_KPC_10()


%% MATPOWER Case Format : Version 2
mpc.version = '2';

%%-----  Power Flow Data  -----%%
%% system MVA base
mpc.baseMVA = 100;

%% bus data													
%	bus_i	type	Pd	Qd	Gs	Bs	area	Vm	Va	baseKV	zone	Vmax	Vmin
mpc.bus = [													
	2	1	0	0	0	0	1	1	0	10	1	1.1	0.9	;
	5	1	0	0	0	0	1	1	0	10	1	1.1	0.9	;
	8	1	0	0	0	0	1	1	0	10	1	1.1	0.9	;
	12	1	0	0	0	0	1	1	0	10	1	1.1	0.9	;
	11	1	0	0	0	0	1	1	0	10	1	1.1	0.9	;
	13	4	0	0	0	0	1	1	0	10	1	1.1	0.9	;
	14	1	0	0	0	0	1	1	0	10	1	1.1	0.9	;
	15	1	0	0	0	0	1	1	0	10	1	1.1	0.9	;
	19	1	0	0	0	0	1	1	0	10	1	1.1	0.9	;
	21	1	0	0	0	0	1	1	0	10	1	1.1	0.9	;
	24	1	0	0	0	0	1	1	0	10	1	1.1	0.9	;
	25	1	0	0	0	0	1	1	0	10	1	1.1	0.9	;
	28	1	0	0	0	0	1	1	0	10	1	1.1	0.9	;
	32	1	0	0	0	0	1	1	0	10	1	1.1	0.9	;
	33	1	0	0	0	0	1	1	0	10	1	1.1	0.9	;
	38	1	0	0	0	0	1	1	0	10	1	1.1	0.9	;
	39	1	0	0	0	0	1	1	0	10	1	1.1	0.9	;
	42	1	0	0	0	0	1	1	0	10	1	1.1	0.9	;
	44	1	0	0	0	0	1	1	0	10	1	1.1	0.9	;
	46	1	0	0	0	0	1	1	0	10	1	1.1	0.9	;
	47	1	0	0	0	0	1	1	0	10	1	1.1	0.9	;
	48	1	0	0	0	0	1	1	0	10	1	1.1	0.9	;
	51	1	0	0	0	0	1	1	0	10	1	1.1	0.9	;
	52	1	0	0	0	0	1	1	0	10	1	1.1	0.9	;
	53	1	0	0	0	0	1	1	0	10	1	1.1	0.9	;
	54	1	0	0	0	0	1	1	0	10	1	1.1	0.9	;
	55	1	0	0	0	0	1	1	0	10	1	1.1	0.9	;
	56	1	0	0	0	0	1	1	0	10	1	1.1	0.9	;
	57	1	0	0	0	0	1	1	0	10	1	1.1	0.9	;
	58	1	0	0	0	0	1	1	0	10	1	1.1	0.9	;
	59	1	0	0	0	0	1	1	0	10	1	1.1	0.9	;
	60	1	0	0	0	0	1	1	0	10	1	1.1	0.9	;
	61	1	0	0	0	0	1	1	0	10	1	1.1	0.9	;
	62	1	0	0	0	0	1	1	0	10	1	1.1	0.9	;
	72	1	0	0	0	0	1	1	0	10	1	1.1	0.9	;
	73	1	0	0	0	0	1	1	0	10	1	1.1	0.9	;
	74	1	0	0	0	0	1	1	0	10	1	1.1	0.9	;
	81	1	0	0	0	0	1	1	0	10	1	1.1	0.9	;
	88	1	0	0	0	0	1	1	0	10	1	1.1	0.9	;
	100	1	0.091428571	-0.026666667	0	0	1	1	0	0.4	1	1.1	0.9	;
	101	1	0.057142857	-0.016666667	0	0	1	1	0	0.4	1	1.1	0.9	;
	102	4	0	0	0	0	1	1	0	0.4	1	1.1	0.9	;
	103	1	0.015606936	-0.006358382	0	0	1	1	0	0.4	1	1.1	0.9	;
	104	1	0.039017341	-0.015895954	0	0	1	1	0	0.4	1	1.1	0.9	;
	105	1	0.098323699	-0.040057803	0	0	1	1	0	0.4	1	1.1	0.9	;
	106	1	0.039017341	-0.015895954	0	0	1	1	0	0.4	1	1.1	0.9	;
	107	1	0.040605096	-0.013535032	0	0	1	1	0	0.4	1	1.1	0.9	;
	108	1	0.064968153	-0.021656051	0	0	1	1	0	0.4	1	1.1	0.9	;
	109	1	0.091428571	-0.026666667	0	0	1	1	0	0.4	1	1.1	0.9	;
	110	1	0.040605096	-0.013535032	0	0	1	1	0	0.4	1	1.1	0.9	;
	111	1	0.064968153	-0.021656051	0	0	1	1	0	0.4	1	1.1	0.9	;
	112	1	0.064968153	-0.021656051	0	0	1	1	0	0.4	1	1.1	0.9	;
	113	1	0.040605096	-0.013535032	0	0	1	1	0	0.4	1	1.1	0.9	;
	114	1	0.064968153	-0.021656051	0	0	1	1	0	0.4	1	1.1	0.9	;
	115	1	0.064968153	-0.021656051	0	0	1	1	0	0.4	1	1.1	0.9	;
	116	1	0.040605096	-0.013535032	0	0	1	1	0	0.4	1	1.1	0.9	;
	117	1	0.167292994	-0.055764331	0	0	1	1	0	0.4	1	1.1	0.9	;
	118	1	0.064968153	-0.021656051	0	0	1	1	0	0.4	1	1.1	0.9	;
	119	1	0.040605096	-0.013535032	0	0	1	1	0	0.4	1	1.1	0.9	;
	120	1	0.025987261	-0.00866242	0	0	1	1	0	0.4	1	1.1	0.9	;
	121	1	0.040605096	-0.013535032	0	0	1	1	0	0.4	1	1.1	0.9	;
	122	1	0.102324841	-0.03410828	0	0	1	1	0	0.4	1	1.1	0.9	;
	123	1	0.024296296	-0.001185185	0	0	1	1	0	0.4	1	1.1	0.9	;
	124	1	0.060740741	-0.002962963	0	0	1	1	0	0.4	1	1.1	0.9	;
	125	1	0.024296296	-0.001185185	0	0	1	1	0	0.4	1	1.1	0.9	;
	126	1	0.037962963	-0.001851852	0	0	1	1	0	0.4	1	1.1	0.9	;
	127	1	0.095666667	-0.004666667	0	0	1	1	0	0.4	1	1.1	0.9	;
	128	1	0.095666667	-0.004666667	0	0	1	1	0	0.4	1	1.1	0.9	;
	129	1	0.095666667	-0.004666667	0	0	1	1	0	0.4	1	1.1	0.9	;
	130	1	0.060740741	-0.002962963	0	0	1	1	0	0.4	1	1.1	0.9	;
	131	1	0.037962963	-0.001851852	0	0	1	1	0	0.4	1	1.1	0.9	;
	132	1	0.025987261	-0.00866242	0	0	1	1	0	0.4	1	1.1	0.9	;
	133	1	0.064968153	-0.021656051	0	0	1	1	0	0.4	1	1.1	0.9	;
	134	1	0.095666667	-0.004666667	0	0	1	1	0	0.4	1	1.1	0.9	;
	135	1	0.095666667	-0.004666667	0	0	1	1	0	0.4	1	1.1	0.9	;
	136	1	0.095666667	-0.004666667	0	0	1	1	0	0.4	1	1.1	0.9	;
	137	3	0	0	0	0	1	1	0	10	1	1.1	0.9	;
	138	1	0	0	0	0	1	1	0	10	1	1.1	0.9	;
	139	3	0	0	0	0	1	1	0	10	1	1.1	0.9	;
	140	1	0	0	0	0	1	1	0	10	1	1.1	0.9	;
	141	4	0	0	0	0	1	1	0	10	1	1.1	0.9	;
	142	3	0	0	0	0	1	1	0	10	1	1.1	0.9	;
	143	4	0	0	0	0	1	1	0	10	1	1.1	0.9	;
	144	3	0	0	0	0	1	1	0	10	1	1.1	0.9	;
	145	1	0.039017341	-0.015895954	0	0	1	1	0	0.4	1	1.1	0.9	;
	146	1	0.039017341	-0.015895954	0	0	1	1	0	0.4	1	1.1	0.9	;
];													

%% branch data														
%	fbus	tbus	r	x	b	rateA (summer)	rateB (spring)	rateC (winter)	tap ratio	shift angle	status	angmin	angmax	step_size	actTap	minTap	maxTap	normalTap	length (km)
mpc.branch = [														
2	124	2.875	10	0	0.4	0.4	0.4	1	0	1	-360	360	-0.025	2	1	5	0	1;
5	127	1.46031746	6.349206349	0	0.63	0.63	0.63	0.952380952	0	1	-360	360	-0.025	2	1	5	0	1;
8	107	5.2	16	0	0.25	0.25	0.25	0.952380952	0	1	-360	360	-0.025	2	1	5	0	1;
11	108	2.875	10	0	0.4	0.4	0.4	0.952380952	0	1	-360	360	-0.025	2	1	5	0	1;
12	145	5.2	16	0	0.25	0.25	0.25	0.952380952	0	1	-360	360	-0.025	2	1	5	0	1;
14	118	2.875	10	0	0.4	0.4	0.4	1	0	1	-360	360	-0.025	2	1	5	0	1;
15	103	17.5	40	0	0.1	0.1	0.1	1	0	1	-360	360	-0.025	2	1	5	0	1;
19	122	1.46031746	6.349206349	0	0.63	0.63	0.63	0.952380952	0	1	-360	360	-0.025	2	1	5	0	1;
21	123	9.1796875	25	0	0.16	0.16	0.16	0.952380952	0	1	-360	360	-0.025	2	1	5	0	1;
24	110	5.2	16	0	0.25	0.25	0.25	1	0	1	-360	360	-0.025	2	1	5	0	1;
25	116	5.2	16	0	0.25	0.25	0.25	0.952380952	0	1	-360	360	-0.025	2	1	5	0	1;
28	135	1.46031746	6.349206349	0	0.63	0.63	0.63	0.952380952	0	1	-360	360	-0.025	2	1	5	0	1;
32	126	5.2	16	0	0.25	0.25	0.25	1	0	1	-360	360	-0.025	2	1	5	0	1;
33	119	5.2	16	0	0.25	0.25	0.25	1	0	1	-360	360	-0.025	2	1	5	0	1;
38	120	9.1796875	25	0	0.16	0.16	0.16	0.952380952	0	1	-360	360	-0.025	2	1	5	0	1;
39	100	2.875	10	0	0.4	0.4	0.4	0.952380952	0	1	-360	360	-0.025	2	1	5	0	1;
42	129	1.46031746	6.349206349	0	0.63	0.63	0.63	0.952380952	0	1	-360	360	-0.025	2	1	5	0	1;
44	111	2.875	10	0	0.4	0.4	0.4	1	0	1	-360	360	-0.025	2	1	5	0	1;
46	121	5.2	16	0	0.25	0.25	0.25	0.952380952	0	1	-360	360	-0.025	2	1	5	0	1;
47	114	2.875	10	0	0.4	0.4	0.4	0.952380952	0	1	-360	360	-0.025	2	1	5	0	1;
48	104	5.2	16	0	0.25	0.25	0.25	0.952380952	0	1	-360	360	-0.025	2	1	5	0	1;
51	133	2.875	10	0	0.4	0.4	0.4	1	0	1	-360	360	-0.025	2	1	5	0	1;
52	112	2.875	10	0	0.4	0.4	0.4	1	0	1	-360	360	-0.025	2	1	5	0	1;
53	125	9.1796875	25	0	0.16	0.16	0.16	0.952380952	0	1	-360	360	-0.025	2	1	5	0	1;
54	128	1.46031746	6.349206349	0	0.63	0.63	0.63	0.952380952	0	1	-360	360	-0.025	2	1	5	0	1;
55	105	1.46031746	6.349206349	0	0.63	0.63	0.63	0.952380952	0	1	-360	360	-0.025	2	1	5	0	1;
56	132	9.1796875	25	0	0.16	0.16	0.16	0.952380952	0	1	-360	360	-0.025	2	1	5	0	1;
57	115	2.875	10	0	0.4	0.4	0.4	1	0	1	-360	360	-0.025	2	1	5	0	1;
58	106	5.2	16	0	0.25	0.25	0.25	0.952380952	0	1	-360	360	-0.025	2	1	5	0	1;
59	101	5.2	16	0	0.25	0.25	0.25	0.952380952	0	1	-360	360	-0.025	2	1	5	0	1;
60	109	2.875	10	0	0.4	0.4	0.4	1	0	1	-360	360	-0.025	2	1	5	0	1;
61	130	2.875	10	0	0.4	0.4	0.4	1	0	1	-360	360	-0.025	2	1	5	0	1;
62	131	5.2	16	0	0.25	0.25	0.25	0.952380952	0	1	-360	360	-0.025	2	1	5	0	1;
72	146	5.2	16	0	0.25	0.25	0.25	0.952380952	0	1	-360	360	-0.025	2	1	5	0	1;
73	136	1.46031746	6.349206349	0	0.63	0.63	0.63	0.952380952	0	1	-360	360	-0.025	2	1	5	0	1;
74	117	2.875	10	0	0.4	0.4	0.4	0.952380952	0	1	-360	360	-0.025	2	1	5	0	1;
74	117	1.46031746	6.349206349	0	0.63	0.63	0.63	0.952380952	0	1	-360	360	-0.025	2	1	5	0	1;
81	134	1.46031746	6.349206349	0	0.63	0.63	0.63	0.952380952	0	1	-360	360	-0.025	2	1	5	0	1;
88	113	5.2	16	0	0.25	0.25	0.25	0.952380952	0	1	-360	360	-0.025	2	1	5	0	1;
2	21	0.206	0.122	7.89993E-05	6.228	6.228	6.228	0	0	1	-360	360	0	0	0	0	0	0.394;
5	73	0.206	0.122	7.89993E-05	6.228	6.228	6.228	0	0	1	-360	360	0	0	0	0	0	0.427;
8	140	0.193	0.1	0.000135	4.4115	4.4115	4.4115	0	0	1	-360	360	0	0	0	0	0	0.4;
8	56	0.206	0.122	7.89993E-05	6.228	6.228	6.228	0	0	1	-360	360	0	0	0	0	0	0.285;
11	60	0.206	0.122	7.89993E-05	6.228	6.228	6.228	0	0	0	-360	360	0	0	0	0	0	0.421;
12	72	0.193	0.1	0.000135	4.4115	4.4115	4.4115	0	0	1	-360	360	0	0	0	0	0	0.399;
14	46	0.206	0.122	7.89993E-05	6.228	6.228	6.228	0	0	1	-360	360	0	0	0	0	0	0.115;
15	12	0.193	0.1	0.000135	4.4115	4.4115	4.4115	0	0	1	-360	360	0	0	0	0	0	0.381;
19	42	0.206	0.122	7.89993E-05	6.228	6.228	6.228	0	0	0	-360	360	0	0	0	0	0	0.426;
21	62	0.206	0.122	7.89993E-05	6.228	6.228	6.228	0	0	1	-360	360	0	0	0	0	0	0.463;
24	25	0.206	0.122	7.89993E-05	6.228	6.228	6.228	0	0	1	-360	360	0	0	0	0	0	0.301;
25	57	0.268	0.1	0.00015	3.633	3.633	3.633	0	0	1	-360	360	0	0	0	0	0	0.286;
28	81	0.206	0.122	7.89993E-05	6.228	6.228	6.228	0	0	1	-360	360	0	0	0	0	0	0.462;
32	53	0.193	0.1	0.000135	4.4115	4.4115	4.4115	0	0	1	-360	360	0	0	0	0	0	0.358;
33	32	0.206	0.122	7.89993E-05	6.228	6.228	6.228	0	0	0	-360	360	0	0	0	0	0	0.439;
33	14	0.206	0.122	7.89993E-05	6.228	6.228	6.228	0	0	1	-360	360	0	0	0	0	0	0.311;
38	19	0.206	0.122	7.89993E-05	6.228	6.228	6.228	0	0	1	-360	360	0	0	0	0	0	0.205;
39	59	0.193	0.1	0.000135	4.4115	4.4115	4.4115	0	0	1	-360	360	0	0	0	0	0	0.161;
42	54	0.268	0.1	0.00012	3.7195	3.7195	3.7195	0	0	1	-360	360	0	0	0	0	0	0.334;
44	24	0.193	0.1	0.000131	6.055	6.055	6.055	0	0	1	-360	360	0	0	0	0	0	0.148;
46	38	0.206	0.122	7.89993E-05	6.228	6.228	6.228	0	0	1	-360	360	0	0	0	0	0	0.451;
47	19	0.206	0.122	7.89993E-05	6.228	6.228	6.228	0	0	1	-360	360	0	0	0	0	0	0.088;
48	15	0.206	0.115	8.20011E-05	5.9685	5.9685	5.9685	0	0	1	-360	360	0	0	0	0	0	0.449;
51	32	0.206	0.122	7.89993E-05	6.228	6.228	6.228	0	0	0	-360	360	0	0	0	0	0	0.557;
52	44	0.193	0.1	0.000131	6.055	6.055	6.055	0	0	1	-360	360	0	0	0	0	0	0.16;
53	2	0.206	0.122	7.89993E-05	6.228	6.228	6.228	0	0	1	-360	360	0	0	0	0	0	0.564;
54	5	0.206	0.122	7.89993E-05	6.228	6.228	6.228	0	0	1	-360	360	0	0	0	0	0	0.387;
55	48	0.193	0.1	0.000135	4.4115	4.4115	4.4115	0	0	1	-360	360	0	0	0	0	0	0.47;
56	14	0.206	0.122	7.89993E-05	6.228	6.228	6.228	0	0	1	-360	360	0	0	0	0	0	0.293;
56	51	0.193	0.1	0.000135	4.4115	4.4115	4.4115	0	0	1	-360	360	0	0	0	0	0	0.519;
57	74	0.206	0.122	7.89993E-05	6.228	6.228	6.228	0	0	0	-360	360	0	0	0	0	0	0.632;
58	55	0.193	0.1	0.000135	4.4115	4.4115	4.4115	0	0	1	-360	360	0	0	0	0	0	0.087;
58	57	0.193	0.1	0.000135	4.4115	4.4115	4.4115	0	0	0	-360	360	0	0	0	0	0	0.202;
59	58	0.193	0.1	0.000166	4.2385	4.2385	4.2385	0	0	0	-360	360	0	0	0	0	0	0.286;
60	138	0.193	0.1	0.000135	4.4115	4.4115	4.4115	0	0	1	-360	360	0	0	0	0	0	0.446;
61	42	0.206	0.122	7.89993E-05	6.228	6.228	6.228	0	0	1	-360	360	0	0	0	0	0	0.356;
62	61	0.206	0.122	7.89993E-05	6.228	6.228	6.228	0	0	1	-360	360	0	0	0	0	0	0.356;
73	28	0.206	0.122	7.89993E-05	6.228	6.228	6.228	0	0	1	-360	360	0	0	0	0	0	0.23;
74	47	0.206	0.122	7.89993E-05	6.228	6.228	6.228	0	0	1	-360	360	0	0	0	0	0	0.37;
81	142	0.206	0.122	7.89993E-05	6.228	6.228	6.228	0	0	1	-360	360	0	0	0	0	0	0.462;
88	14	0.206	0.122	7.89993E-05	6.228	6.228	6.228	0	0	1	-360	360	0	0	0	0	0	0.344;
88	52	0.206	0.122	7.89993E-05	6.228	6.228	6.228	0	0	1	-360	360	0	0	0	0	0	0.108;
137	39	0.206	0.122	7.89993E-05	6.228	6.228	6.228	0	0	1	-360	360	0	0	0	0	0	0.15;
138	59	0.206	0.122	7.89993E-05	6.228	6.228	6.228	0	0	1	-360	360	0	0	0	0	0	0.454;
139	11	0.206	0.122	7.89993E-05	6.228	6.228	6.228	0	0	1	-360	360	0	0	0	0	0	1.35;
140	11	0.206	0.122	7.89993E-05	6.228	6.228	6.228	0	0	1	-360	360	0	0	0	0	0	0.00211;
141	5	0.206	0.122	7.89993E-05	6.228	6.228	6.228	0	0	0	-360	360	0	0	0	0	0	0.356;
144	48	0.206	0.122	7.89993E-05	6.228	6.228	6.228	0	0	1	-360	360	0	0	0	0	0	0.681;
];

%% generator data
%	bus	Pg	Qg	Qmax	Qmin	Vg	mBase	status	Pmax	Pmin	Pc1	Pc2	Qc1min	Qc1max	Qc2min	Qc2max	ramp_agc	ramp_10	ramp_30	ramp_q	apf	
mpc.gen = [																						
	137	0	0	8	-8	1.062	100	1	8	-8	0	0	0	0	0	0	0	0	0	0	0	;
	139	0	0	16	-16	1.045	100	1	16	-16	0	0	0	0	0	0	0	0	0	0	0	;
	144	0	0	8	-8	1.062	100	1	8	-8	0	0	0	0	0	0	0	0	0	0	0	;
	142	0	0	16	-16	1.042	100	1	16	-16	0	0	0	0	0	0	0	0	0	0	0	;
];							

%%-----  OPF Data  -----%%																										
%% generator cost data																										
%	1	startup	shutdown	n	x1	y1	...	xn	yn																	
%	2	startup	shutdown	n	c(n-1)	...	c0																			
mpc.gencost = [																										
	2	0	0	2	0.01	  0; 
	2	0	0	2	2	  0; 	
	2	0	0	2	0.02	  0; 
	2	0	0	2	3	  0; 
];
